ilk_parvin_atp
  PyMOL3.1          3D                             0

 31 33  0  0  0  0  0  0  0  0999 V2000
   -9.0650    0.5320   13.3750 P   0  0  0  0  0  0  0  0  0  0  0  0
   -7.2290   -1.6180   12.8000 P   0  0  0  0  0  0  0  0  0  0  0  0
   -6.9380   -2.2430   15.5740 P   0  0  0  0  0  0  0  0  0  0  0  0
   -9.8050    1.3250   11.0240 C   0  0  0  0  0  0  0  0  0  0  0  0
   -8.8590    1.4670   12.1140 O   0  0  0  0  0  0  0  0  0  0  0  0
   -9.4400    2.2750    9.8970 C   0  0  0  0  0  0  0  0  0  0  0  0
   -9.4580    3.5950   10.4250 O   0  0  0  0  0  0  0  0  0  0  0  0
   -7.9560    2.0980    9.4890 C   0  0  0  0  0  0  0  0  0  0  0  0
   -7.8430    1.1310    8.4560 O   0  0  0  0  0  0  0  0  0  0  0  0
   -7.5850    3.4760    8.9230 C   0  0  0  0  0  0  0  0  0  0  0  0
   -8.1250    3.6150    7.5730 O   0  0  0  0  0  0  0  0  0  0  0  0
   -8.4040    4.3990    9.8000 C   0  0  0  0  0  0  0  0  0  0  0  0
   -6.5060    8.9200   10.8970 N   0  0  0  0  0  0  0  0  0  0  0  0
  -10.5520    0.4160   13.6370 O   0  5  0  0  0  0  0  0  0  0  0  0
   -6.1640   -0.5600   12.9180 O   0  5  0  0  0  0  0  0  0  0  0  0
   -6.1960   -0.9640   15.8520 O   0  0  0  0  0  0  0  0  0  0  0  0
   -7.2430    8.5690    9.8710 C   0  0  0  0  0  0  0  0  0  0  0  0
   -8.1940    1.0460   14.4370 O   0  0  0  0  0  0  0  0  0  0  0  0
   -7.2520   -2.5720   11.6780 O   0  0  0  0  0  0  0  0  0  0  0  0
   -6.1180   -3.4470   16.1350 O   0  5  0  0  0  0  0  0  0  0  0  0
   -7.6520    7.3210    9.7360 N   0  0  0  0  0  0  0  0  0  0  0  0
   -8.6470   -0.9040   12.8120 O   0  0  0  0  0  0  0  0  0  0  0  0
   -7.2050   -2.6310   14.0120 O   0  0  0  0  0  0  0  0  0  0  0  0
   -8.3540   -2.3020   16.2730 O   0  0  0  0  0  0  0  0  0  0  0  0
   -7.3090    6.4160   10.6660 C   0  0  0  0  0  0  0  0  0  0  0  0
   -6.5340    6.7750   11.7650 C   0  0  0  0  0  0  0  0  0  0  0  0
   -6.1170    8.0850   11.8730 C   0  0  0  0  0  0  0  0  0  0  0  0
   -5.3460    8.5530   12.9020 N   0  0  0  0  0  0  0  0  0  0  0  0
   -6.3850    5.6830   12.5000 N   0  0  0  0  0  0  0  0  0  0  0  0
   -6.9930    4.6570   11.9060 C   0  0  0  0  0  0  0  0  0  0  0  0
   -7.5610    5.1360   10.7770 N   0  0  0  0  0  0  0  0  0  0  0  0
  1  5  1  0  0  0  0
  1 14  1  0  0  0  0
  1 18  2  0  0  0  0
  1 22  1  0  0  0  0
  2 15  1  0  0  0  0
  2 19  2  0  0  0  0
  2 22  1  0  0  0  0
  2 23  1  0  0  0  0
  3 16  1  0  0  0  0
  3 20  1  0  0  0  0
  3 23  1  0  0  0  0
  3 24  2  0  0  0  0
  4  5  1  0  0  0  0
  4  6  1  0  0  0  0
  6  7  1  0  0  0  0
  6  8  1  0  0  0  0
  7 12  1  0  0  0  0
  8  9  1  0  0  0  0
  8 10  1  0  0  0  0
 10 11  1  0  0  0  0
 10 12  1  0  0  0  0
 12 31  1  0  0  0  0
 13 17  4  0  0  0  0
 13 27  4  0  0  0  0
 17 21  4  0  0  0  0
 21 25  4  0  0  0  0
 25 26  4  0  0  0  0
 25 31  4  0  0  0  0
 26 27  4  0  0  0  0
 26 29  4  0  0  0  0
 27 28  1  0  0  0  0
 29 30  4  0  0  0  0
 30 31  4  0  0  0  0
M  END
>  <pdb_header>
CRYST1   44.134  117.103   47.393  90.00 101.96  90.00 P 1 21 1      1

$$$$
