
     RDKit          3D

 55 54  0  0  0  0  0  0  0  0999 V2000
   -0.9256    2.8347    0.0516 N   0  0  0  0  0  0  0  0  0  0  0  0
   -1.7750    3.8577   -0.5491 C   0  0  2  0  0  0  0  0  0  0  0  0
   -0.9855    4.4884   -1.7087 C   0  0  0  0  0  0  0  0  0  0  0  0
    0.1925    4.2192   -1.9403 O   0  0  0  0  0  0  0  0  0  0  0  0
   -1.6611    5.3829   -2.4865 N   0  0  0  0  0  0  0  0  0  0  0  0
   -1.4517    1.7609    0.7264 C   0  0  0  0  0  0  0  0  0  0  0  0
   -0.4409    0.7077    1.2592 C   0  0  1  0  0  0  0  0  0  0  0  0
   -2.6549    1.6936    0.9899 O   0  0  0  0  0  0  0  0  0  0  0  0
   -1.1996   -0.4970    1.6117 N   0  0  0  0  0  0  0  0  0  0  0  0
    0.7887    0.4557    0.3682 C   0  0  0  0  0  0  0  0  0  0  0  0
   -1.7052   -1.3522    0.6505 C   0  0  0  0  0  0  0  0  0  0  0  0
    1.7202   -0.6323    0.9176 C   0  0  0  0  0  0  0  0  0  0  0  0
   -2.6470   -2.4429    1.1999 C   0  0  1  0  0  0  0  0  0  0  0  0
   -1.4281   -1.2742   -0.5461 O   0  0  0  0  0  0  0  0  0  0  0  0
    2.9016   -0.9430   -0.0064 C   0  0  0  0  0  0  0  0  0  0  0  0
   -3.2272   -3.1491    0.0643 N   0  0  0  0  0  0  0  0  0  0  0  0
   -1.8871   -3.3984    2.1127 C   0  0  0  0  0  0  0  0  0  0  0  0
    3.8599    0.2322   -0.1917 C   0  0  0  0  0  0  0  0  0  0  0  0
   -4.3989   -3.8524    0.1618 C   0  0  0  0  0  0  0  0  0  0  0  0
    5.0195   -0.1480   -0.9725 N   0  0  0  0  0  0  0  0  0  0  0  0
   -5.0122   -4.0022    1.2139 O   0  0  0  0  0  0  0  0  0  0  0  0
   -4.8771   -4.4495   -1.1339 C   0  0  0  0  0  0  0  0  0  0  0  0
    6.1160   -0.7467   -0.3951 C   0  0  0  0  0  0  0  0  0  0  0  0
    7.1890   -1.1403   -1.3744 C   0  0  0  0  0  0  0  0  0  0  0  0
    6.2215   -0.9632    0.8076 O   0  0  0  0  0  0  0  0  0  0  0  0
   -2.1769    4.9115    0.4747 C   0  0  0  0  0  0  0  0  0  0  0  0
    0.0288    2.8153   -0.2936 H   0  0  0  0  0  0  0  0  0  0  0  0
   -2.6657    3.3721   -0.9649 H   0  0  0  0  0  0  0  0  0  0  0  0
   -1.1748    5.7329   -3.3031 H   0  0  0  0  0  0  0  0  0  0  0  0
   -2.6710    5.4362   -2.4851 H   0  0  0  0  0  0  0  0  0  0  0  0
   -0.0840    1.1068    2.2180 H   0  0  0  0  0  0  0  0  0  0  0  0
   -1.7797   -0.3984    2.4374 H   0  0  0  0  0  0  0  0  0  0  0  0
    1.3612    1.3871    0.2961 H   0  0  0  0  0  0  0  0  0  0  0  0
    0.4863    0.2104   -0.6557 H   0  0  0  0  0  0  0  0  0  0  0  0
    1.1628   -1.5644    1.0629 H   0  0  0  0  0  0  0  0  0  0  0  0
    2.0946   -0.3312    1.9035 H   0  0  0  0  0  0  0  0  0  0  0  0
   -3.4587   -1.9550    1.7520 H   0  0  0  0  0  0  0  0  0  0  0  0
    3.4488   -1.7961    0.4147 H   0  0  0  0  0  0  0  0  0  0  0  0
    2.5298   -1.2727   -0.9847 H   0  0  0  0  0  0  0  0  0  0  0  0
   -2.8257   -2.9395   -0.8454 H   0  0  0  0  0  0  0  0  0  0  0  0
   -1.4723   -2.8750    2.9803 H   0  0  0  0  0  0  0  0  0  0  0  0
   -2.5376   -4.1976    2.4822 H   0  0  0  0  0  0  0  0  0  0  0  0
   -1.0523   -3.8690    1.5807 H   0  0  0  0  0  0  0  0  0  0  0  0
    3.3759    1.0513   -0.7324 H   0  0  0  0  0  0  0  0  0  0  0  0
    4.1936    0.6110    0.7808 H   0  0  0  0  0  0  0  0  0  0  0  0
    4.9469   -0.1183   -1.9810 H   0  0  0  0  0  0  0  0  0  0  0  0
   -5.9022   -4.1190   -1.3220 H   0  0  0  0  0  0  0  0  0  0  0  0
   -4.2540   -4.1421   -1.9783 H   0  0  0  0  0  0  0  0  0  0  0  0
   -4.8477   -5.5398   -1.0559 H   0  0  0  0  0  0  0  0  0  0  0  0
    7.0548   -0.6460   -2.3405 H   0  0  0  0  0  0  0  0  0  0  0  0
    7.1602   -2.2231   -1.5203 H   0  0  0  0  0  0  0  0  0  0  0  0
    8.1633   -0.8475   -0.9740 H   0  0  0  0  0  0  0  0  0  0  0  0
   -2.8352    5.6654    0.0309 H   0  0  0  0  0  0  0  0  0  0  0  0
   -2.7042    4.4612    1.3220 H   0  0  0  0  0  0  0  0  0  0  0  0
   -1.2969    5.4317    0.8700 H   0  0  0  0  0  0  0  0  0  0  0  0
  1  2  1  0
  2  3  1  0
  3  4  2  0
  3  5  1  0
  6  1  1  0
  7  6  1  0
  6  8  2  0
  9  7  1  0
 10  7  1  0
 11  9  1  0
 12 10  1  0
 13 11  1  0
 11 14  2  0
 15 12  1  0
 16 13  1  0
 13 17  1  0
 18 15  1  0
 19 16  1  0
 20 18  1  0
 19 21  2  0
 22 19  1  0
 23 20  1  0
 24 23  1  0
 23 25  2  0
  2 26  1  0
  1 27  1  0
  2 28  1  6
  5 29  1  0
  5 30  1  0
  7 31  1  1
  9 32  1  0
 10 33  1  0
 10 34  1  0
 12 35  1  0
 12 36  1  0
 13 37  1  1
 15 38  1  0
 15 39  1  0
 16 40  1  0
 17 41  1  0
 17 42  1  0
 17 43  1  0
 18 44  1  0
 18 45  1  0
 20 46  1  0
 22 47  1  0
 22 48  1  0
 22 49  1  0
 24 50  1  0
 24 51  1  0
 24 52  1  0
 26 53  1  0
 26 54  1  0
 26 55  1  0
M  END
