
     RDKit          3D

 65 64  0  0  0  0  0  0  0  0999 V2000
   -2.1858   -3.1495   -1.8661 N   0  0  0  0  0  0  0  0  0  0  0  0
   -2.9468   -4.3942   -1.8973 C   0  0  2  0  0  0  0  0  0  0  0  0
   -2.2414   -5.3984   -0.9685 C   0  0  0  0  0  0  0  0  0  0  0  0
   -1.0648   -5.2913   -0.6293 O   0  0  0  0  0  0  0  0  0  0  0  0
   -2.9832   -6.4775   -0.5807 N   0  0  0  0  0  0  0  0  0  0  0  0
   -2.5021   -2.1722   -0.9453 C   0  0  0  0  0  0  0  0  0  0  0  0
   -1.4464   -1.0564   -0.7898 C   0  0  1  0  0  0  0  0  0  0  0  0
   -3.5411   -2.1834   -0.2838 O   0  0  0  0  0  0  0  0  0  0  0  0
   -2.1084    0.0469   -0.0967 N   0  0  0  0  0  0  0  0  0  0  0  0
   -0.2374   -1.5894   -0.0021 C   0  0  0  0  0  0  0  0  0  0  0  0
   -1.8759    1.3679   -0.3916 C   0  0  0  0  0  0  0  0  0  0  0  0
    0.9010   -0.5821    0.2021 C   0  0  0  0  0  0  0  0  0  0  0  0
   -2.7743    2.3683    0.3590 C   0  0  1  0  0  0  0  0  0  0  0  0
   -1.0088    1.7339   -1.1869 O   0  0  0  0  0  0  0  0  0  0  0  0
    1.6412   -0.2362   -1.0981 C   0  0  0  0  0  0  0  0  0  0  0  0
   -2.2284    3.7038    0.1542 N   0  0  0  0  0  0  0  0  0  0  0  0
   -4.2123    2.2811   -0.1380 C   0  0  0  0  0  0  0  0  0  0  0  0
    2.6057    0.9554   -0.9846 C   0  0  0  0  0  0  0  0  0  0  0  0
   -2.4643    4.7328    1.0288 C   0  0  0  0  0  0  0  0  0  0  0  0
    3.7502    0.6331   -0.0102 C   0  0  0  0  0  0  0  0  0  0  0  0
    1.9057    2.2145   -0.6347 N   0  0  0  0  0  0  0  0  0  0  0  0
   -3.1713    4.6263    2.0245 O   0  0  0  0  0  0  0  0  0  0  0  0
   -1.7522    6.0082    0.6721 C   0  0  0  0  0  0  0  0  0  0  0  0
    3.5048    1.1578    1.2248 O   0  0  0  0  0  0  0  0  0  0  0  0
    4.7107   -0.0658   -0.3082 O   0  0  0  0  0  0  0  0  0  0  0  0
    4.4367    0.9574    2.3172 C   0  0  0  0  0  0  0  0  0  0  0  0
    3.8075    1.7007    3.5052 C   0  0  0  0  0  0  0  0  0  0  0  0
    4.5604   -0.5266    2.6797 C   0  0  0  0  0  0  0  0  0  0  0  0
    5.7985    1.5885    2.0094 C   0  0  0  0  0  0  0  0  0  0  0  0
   -3.0114   -4.9505   -3.3122 C   0  0  0  0  0  0  0  0  0  0  0  0
   -1.2037   -3.2489   -2.1002 H   0  0  0  0  0  0  0  0  0  0  0  0
   -3.9606   -4.2188   -1.5206 H   0  0  0  0  0  0  0  0  0  0  0  0
   -3.9936   -6.4322   -0.5687 H   0  0  0  0  0  0  0  0  0  0  0  0
   -2.5475   -7.0867    0.1013 H   0  0  0  0  0  0  0  0  0  0  0  0
   -1.1593   -0.7264   -1.7935 H   0  0  0  0  0  0  0  0  0  0  0  0
   -2.9112   -0.2101    0.4726 H   0  0  0  0  0  0  0  0  0  0  0  0
    0.1686   -2.4825   -0.4925 H   0  0  0  0  0  0  0  0  0  0  0  0
   -0.5792   -1.9199    0.9881 H   0  0  0  0  0  0  0  0  0  0  0  0
    1.6194   -1.0226    0.9046 H   0  0  0  0  0  0  0  0  0  0  0  0
    0.5122    0.3150    0.6926 H   0  0  0  0  0  0  0  0  0  0  0  0
   -2.7307    2.1370    1.4299 H   0  0  0  0  0  0  0  0  0  0  0  0
    0.9271   -0.0201   -1.8999 H   0  0  0  0  0  0  0  0  0  0  0  0
    2.2011   -1.1230   -1.4228 H   0  0  0  0  0  0  0  0  0  0  0  0
   -1.5466    3.8124   -0.5911 H   0  0  0  0  0  0  0  0  0  0  0  0
   -4.8524    3.0074    0.3737 H   0  0  0  0  0  0  0  0  0  0  0  0
   -4.2698    2.4874   -1.2130 H   0  0  0  0  0  0  0  0  0  0  0  0
   -4.6339    1.2848    0.0300 H   0  0  0  0  0  0  0  0  0  0  0  0
    3.0719    1.1262   -1.9622 H   0  0  0  0  0  0  0  0  0  0  0  0
    1.7566    2.2225    0.3761 H   0  0  0  0  0  0  0  0  0  0  0  0
    0.9633    2.1895   -1.0446 H   0  0  0  0  0  0  0  0  0  0  0  0
   -2.2901    6.8575    1.1033 H   0  0  0  0  0  0  0  0  0  0  0  0
   -0.7344    5.9800    1.0705 H   0  0  0  0  0  0  0  0  0  0  0  0
   -1.7176    6.1411   -0.4133 H   0  0  0  0  0  0  0  0  0  0  0  0
    4.4254    1.6253    4.4061 H   0  0  0  0  0  0  0  0  0  0  0  0
    3.6652    2.7620    3.2703 H   0  0  0  0  0  0  0  0  0  0  0  0
    2.8131    1.2991    3.7327 H   0  0  0  0  0  0  0  0  0  0  0  0
    5.0719   -1.0973    1.8989 H   0  0  0  0  0  0  0  0  0  0  0  0
    3.5710   -0.9811    2.8037 H   0  0  0  0  0  0  0  0  0  0  0  0
    5.1254   -0.6641    3.6079 H   0  0  0  0  0  0  0  0  0  0  0  0
    5.6796    2.6247    1.6735 H   0  0  0  0  0  0  0  0  0  0  0  0
    6.3237    1.0580    1.2096 H   0  0  0  0  0  0  0  0  0  0  0  0
    6.4496    1.5806    2.8902 H   0  0  0  0  0  0  0  0  0  0  0  0
   -3.5748   -5.8887   -3.3431 H   0  0  0  0  0  0  0  0  0  0  0  0
   -2.0090   -5.1529   -3.7059 H   0  0  0  0  0  0  0  0  0  0  0  0
   -3.4968   -4.2382   -3.9871 H   0  0  0  0  0  0  0  0  0  0  0  0
  1  2  1  0
  2  3  1  0
  3  4  2  0
  3  5  1  0
  6  1  1  0
  7  6  1  0
  6  8  2  0
  9  7  1  0
 10  7  1  0
 11  9  1  0
 12 10  1  0
 13 11  1  0
 11 14  2  0
 15 12  1  0
 16 13  1  0
 13 17  1  0
 18 15  1  0
 19 16  1  0
 20 18  1  0
 18 21  1  0
 19 22  2  0
 23 19  1  0
 24 20  1  0
 20 25  2  0
 26 24  1  0
 27 26  1  0
 26 28  1  0
 26 29  1  0
  2 30  1  0
  1 31  1  0
  2 32  1  1
  5 33  1  0
  5 34  1  0
  7 35  1  6
  9 36  1  0
 10 37  1  0
 10 38  1  0
 12 39  1  0
 12 40  1  0
 13 41  1  1
 15 42  1  0
 15 43  1  0
 16 44  1  0
 17 45  1  0
 17 46  1  0
 17 47  1  0
 18 48  1  0
 21 49  1  0
 21 50  1  0
 23 51  1  0
 23 52  1  0
 23 53  1  0
 27 54  1  0
 27 55  1  0
 27 56  1  0
 28 57  1  0
 28 58  1  0
 28 59  1  0
 29 60  1  0
 29 61  1  0
 29 62  1  0
 30 63  1  0
 30 64  1  0
 30 65  1  0
M  END
